tests/fuzzer/corpus_json/24_columnar_21_random_009.json
{
  "version": "1.0",
  "type": "input",
  "is_batch": false,
  "attributes": {
    "node": [
      "id",
      "u_rated"
    ],
    "source": [
      "id",
      "node",
      "status",
      "u_ref",
      "u_ref_angle",
      "sk",
      "rx_ratio",
      "z01_ratio"
    ],
    "line": [
      "id",
      "from_node",
      "to_node",
      "from_status",
      "to_status",
      "r1",
      "x1",
      "c1",
      "tan1",
      "r0",
      "x0",
      "c0",
      "tan0",
      "i_n"
    ],
    "sym_load": [
      "id",
      "node",
      "status",
      "type",
      "p_specified",
      "q_specified"
    ]
  },
  "data": {
    "node": [
      [
        0,
        380000.0
      ],
      [
        1,
        380000.0
      ],
      [
        2,
        380000.0
      ],
      [
        3,
        380000.0
      ],
      [
        4,
        380000.0
      ],
      [
        5,
        380000.0
      ],
      [
        6,
        380000.0
      ],
      [
        7,
        380000.0
      ],
      [
        8,
        380000.0
      ]
    ],
    "source": [
      [
        9,
        0,
        1,
        0.927707882502891,
        0.0,
        373374600.2019025,
        0.43328092499317067,
        1.0
      ],
      [
        10,
        8,
        1,
        1.0,
        0.0,
        502831801.8442032,
        0.1,
        1.0
      ]
    ],
    "line": [
      [
        11,
        0,
        1,
        1,
        1,
        4.491489850159691,
        0.4040732359150051,
        5.542704681782861e-07,
        0.0,
        0.3,
        0.3,
        1e-09,
        0.0,
        620.4835422567822
      ],
      [
        12,
        1,
        2,
        1,
        1,
        0.20447882742405776,
        1.8950980219771785,
        7.03480392293747e-07,
        0.0,
        0.3,
        0.3,
        1e-09,
        0.0,
        457.50071124552545
      ],
      [
        13,
        2,
        3,
        1,
        1,
        3.6253268429110452,
        0.7857858079831292,
        2.3801220246653274e-07,
        0.0,
        0.3,
        0.3,
        1e-09,
        0.0,
        119.8380526982345
      ],
      [
        14,
        3,
        4,
        1,
        1,
        2.5313452583449116,
        4.619148932061478,
        5.904284571359125e-07,
        0.0,
        0.3,
        0.3,
        1e-09,
        0.0,
        776.467372563156
      ],
      [
        15,
        4,
        5,
        1,
        1,
        1.918324224263241,
        3.730476084622143,
        1.0166943757947843e-07,
        0.0,
        0.3,
        0.3,
        1e-09,
        0.0,
        298.26629819654306
      ],
      [
        16,
        5,
        6,
        1,
        1,
        3.371180006276856,
        3.628531761206524,
        4.21755395006955e-07,
        0.0,
        0.3,
        0.3,
        1e-09,
        0.0,
        96.8352592353108
      ],
      [
        17,
        6,
        7,
        1,
        1,
        1.3336678561337023,
        1.0494506506824086,
        2.811844150845688e-07,
        0.0,
        0.3,
        0.3,
        1e-09,
        0.0,
        811.415593719205
      ],
      [
        18,
        7,
        8,
        1,
        1,
        0.9974161054492264,
        4.431998655396387,
        8.793731884001768e-07,
        0.0,
        0.3,
        0.3,
        1e-09,
        0.0,
        64.24146254997386
      ]
    ],
    "sym_load": [
      [
        19,
        1,
        1,
        1,
        -72171.43621521718,
        -5265.333738218942
      ],
      [
        20,
        5,
        1,
        2,
        -60465.93055828893,
        7043.927640177786
      ],
      [
        21,
        6,
        1,
        0,
        -73363.3212152579,
        8353.149297455671
      ],
      [
        22,
        7,
        1,
        2,
        -651.6701913064317,
        8418.526380982315
      ],
      [
        23,
        8,
        1,
        1,
        -61567.10142088304,
        5297.95409640935
      ]
    ]
  }
}
